
---------- Begin Simulation Statistics ----------
host_inst_rate                                  89069                       # Simulator instruction rate (inst/s)
host_mem_usage                                 337008                       # Number of bytes of host memory used
host_seconds                                   224.54                       # Real time elapsed on the host
host_tick_rate                              492625618                       # Simulator tick rate (ticks/s)
sim_freq                                 1000000000000                       # Frequency of simulated ticks
sim_insts                                    20000003                       # Number of instructions simulated
sim_seconds                                  0.110616                       # Number of seconds simulated
sim_ticks                                110616385000                       # Number of ticks simulated
system.cpu.dcache.ReadReq_accesses            5609287                       # number of ReadReq accesses(hits+misses)
system.cpu.dcache.ReadReq_avg_miss_latency 34008.151493                       # average ReadReq miss latency
system.cpu.dcache.ReadReq_avg_mshr_miss_latency 30830.628810                       # average ReadReq mshr miss latency
system.cpu.dcache.ReadReq_hits                2083982                       # number of ReadReq hits
system.cpu.dcache.ReadReq_miss_latency   119889106500                       # number of ReadReq miss cycles
system.cpu.dcache.ReadReq_miss_rate          0.628476                       # miss rate for ReadReq accesses
system.cpu.dcache.ReadReq_misses              3525305                       # number of ReadReq misses
system.cpu.dcache.ReadReq_mshr_hits              4228                       # number of ReadReq MSHR hits
system.cpu.dcache.ReadReq_mshr_miss_latency 108557018000                       # number of ReadReq MSHR miss cycles
system.cpu.dcache.ReadReq_mshr_miss_rate     0.627723                       # mshr miss rate for ReadReq accesses
system.cpu.dcache.ReadReq_mshr_misses         3521077                       # number of ReadReq MSHR misses
system.cpu.dcache.WriteReq_accesses            293301                       # number of WriteReq accesses(hits+misses)
system.cpu.dcache.WriteReq_avg_miss_latency 82505.269058                       # average WriteReq miss latency
system.cpu.dcache.WriteReq_avg_mshr_miss_latency 79181.414100                       # average WriteReq mshr miss latency
system.cpu.dcache.WriteReq_hits                285522                       # number of WriteReq hits
system.cpu.dcache.WriteReq_miss_latency     641808488                       # number of WriteReq miss cycles
system.cpu.dcache.WriteReq_miss_rate         0.026522                       # miss rate for WriteReq accesses
system.cpu.dcache.WriteReq_misses                7779                       # number of WriteReq misses
system.cpu.dcache.WriteReq_mshr_hits             2942                       # number of WriteReq MSHR hits
system.cpu.dcache.WriteReq_mshr_miss_latency    383000500                       # number of WriteReq MSHR miss cycles
system.cpu.dcache.WriteReq_mshr_miss_rate     0.016492                       # mshr miss rate for WriteReq accesses
system.cpu.dcache.WriteReq_mshr_misses           4837                       # number of WriteReq MSHR misses
system.cpu.dcache.avg_blocked_cycles::no_mshrs         9750                       # average number of cycles each access was blocked
system.cpu.dcache.avg_blocked_cycles::no_targets 79247.568401                       # average number of cycles each access was blocked
system.cpu.dcache.avg_refs                   0.672486                       # Average number of references to valid blocks.
system.cpu.dcache.blocked::no_mshrs                 2                       # number of cycles access was blocked
system.cpu.dcache.blocked::no_targets             519                       # number of cycles access was blocked
system.cpu.dcache.blocked_cycles::no_mshrs        19500                       # number of cycles access was blocked
system.cpu.dcache.blocked_cycles::no_targets     41129488                       # number of cycles access was blocked
system.cpu.dcache.cache_copies                      0                       # number of cache copies performed
system.cpu.dcache.demand_accesses             5902588                       # number of demand (read+write) accesses
system.cpu.dcache.demand_avg_miss_latency 34114.930465                       # average overall miss latency
system.cpu.dcache.demand_avg_mshr_miss_latency 30896.958491                       # average overall mshr miss latency
system.cpu.dcache.demand_hits                 2369504                       # number of demand (read+write) hits
system.cpu.dcache.demand_miss_latency    120530914988                       # number of demand (read+write) miss cycles
system.cpu.dcache.demand_miss_rate           0.598565                       # miss rate for demand accesses
system.cpu.dcache.demand_misses               3533084                       # number of demand (read+write) misses
system.cpu.dcache.demand_mshr_hits               7170                       # number of demand (read+write) MSHR hits
system.cpu.dcache.demand_mshr_miss_latency 108940018500                       # number of demand (read+write) MSHR miss cycles
system.cpu.dcache.demand_mshr_miss_rate      0.597351                       # mshr miss rate for demand accesses
system.cpu.dcache.demand_mshr_misses          3525914                       # number of demand (read+write) MSHR misses
system.cpu.dcache.fast_writes                       0                       # number of fast writes performed
system.cpu.dcache.mshr_cap_events                   0                       # number of times MSHR cap was activated
system.cpu.dcache.no_allocate_misses                0                       # Number of misses that were no-allocate
system.cpu.dcache.occ_%::0                   0.620350                       # Average percentage of cache occupancy
system.cpu.dcache.occ_blocks::0            635.238348                       # Average occupied blocks per context
system.cpu.dcache.overall_accesses            5902588                       # number of overall (read+write) accesses
system.cpu.dcache.overall_avg_miss_latency 34114.930465                       # average overall miss latency
system.cpu.dcache.overall_avg_mshr_miss_latency 30896.958491                       # average overall mshr miss latency
system.cpu.dcache.overall_avg_mshr_uncacheable_latency     no_value                       # average overall mshr uncacheable latency
system.cpu.dcache.overall_hits                2369504                       # number of overall hits
system.cpu.dcache.overall_miss_latency   120530914988                       # number of overall miss cycles
system.cpu.dcache.overall_miss_rate          0.598565                       # miss rate for overall accesses
system.cpu.dcache.overall_misses              3533084                       # number of overall misses
system.cpu.dcache.overall_mshr_hits              7170                       # number of overall MSHR hits
system.cpu.dcache.overall_mshr_miss_latency 108940018500                       # number of overall MSHR miss cycles
system.cpu.dcache.overall_mshr_miss_rate     0.597351                       # mshr miss rate for overall accesses
system.cpu.dcache.overall_mshr_misses         3525914                       # number of overall MSHR misses
system.cpu.dcache.overall_mshr_uncacheable_latency            0                       # number of overall MSHR uncacheable cycles
system.cpu.dcache.overall_mshr_uncacheable_misses            0                       # number of overall MSHR uncacheable misses
system.cpu.dcache.prefetch_accuracy          no_value                       # ratio of good prefetches to total prefetches
system.cpu.dcache.prefetch_hits                     0                       # number of prefetched blocks that were accessed
system.cpu.dcache.replacements                3524265                       # number of replacements
system.cpu.dcache.sampled_refs                3525115                       # Sample count of references to valid blocks.
system.cpu.dcache.soft_prefetch_mshr_full            0                       # number of mshr full events for SW prefetching instrutions
system.cpu.dcache.tagsinuse                635.238348                       # Cycle average of tags in use
system.cpu.dcache.total_refs                  2370592                       # Total number of references to valid blocks.
system.cpu.dcache.warmup_cycle                      0                       # Cycle when the warmup percentage was hit.
system.cpu.dcache.writebacks                     4506                       # number of writebacks
system.cpu.dtb.data_accesses                        0                       # DTB accesses
system.cpu.dtb.data_acv                             0                       # DTB access violations
system.cpu.dtb.data_hits                            0                       # DTB hits
system.cpu.dtb.data_misses                          0                       # DTB misses
system.cpu.dtb.fetch_accesses                       0                       # ITB accesses
system.cpu.dtb.fetch_acv                            0                       # ITB acv
system.cpu.dtb.fetch_hits                           0                       # ITB hits
system.cpu.dtb.fetch_misses                         0                       # ITB misses
system.cpu.dtb.read_accesses                        0                       # DTB read accesses
system.cpu.dtb.read_acv                             0                       # DTB read access violations
system.cpu.dtb.read_hits                            0                       # DTB read hits
system.cpu.dtb.read_misses                          0                       # DTB read misses
system.cpu.dtb.write_accesses                       0                       # DTB write accesses
system.cpu.dtb.write_acv                            0                       # DTB write access violations
system.cpu.dtb.write_hits                           0                       # DTB write hits
system.cpu.dtb.write_misses                         0                       # DTB write misses
system.cpu.icache.ReadReq_accesses           13536503                       # number of ReadReq accesses(hits+misses)
system.cpu.icache.ReadReq_avg_miss_latency 39718.236038                       # average ReadReq miss latency
system.cpu.icache.ReadReq_avg_mshr_miss_latency 35713.068732                       # average ReadReq mshr miss latency
system.cpu.icache.ReadReq_hits               13530970                       # number of ReadReq hits
system.cpu.icache.ReadReq_miss_latency      219761000                       # number of ReadReq miss cycles
system.cpu.icache.ReadReq_miss_rate          0.000409                       # miss rate for ReadReq accesses
system.cpu.icache.ReadReq_misses                 5533                       # number of ReadReq misses
system.cpu.icache.ReadReq_mshr_hits               367                       # number of ReadReq MSHR hits
system.cpu.icache.ReadReq_mshr_miss_latency    184458000                       # number of ReadReq MSHR miss cycles
system.cpu.icache.ReadReq_mshr_miss_rate     0.000382                       # mshr miss rate for ReadReq accesses
system.cpu.icache.ReadReq_mshr_misses            5165                       # number of ReadReq MSHR misses
system.cpu.icache.avg_blocked_cycles::no_mshrs     no_value                       # average number of cycles each access was blocked
system.cpu.icache.avg_blocked_cycles::no_targets     no_value                       # average number of cycles each access was blocked
system.cpu.icache.avg_refs                2619.235385                       # Average number of references to valid blocks.
system.cpu.icache.blocked::no_mshrs                 0                       # number of cycles access was blocked
system.cpu.icache.blocked::no_targets               0                       # number of cycles access was blocked
system.cpu.icache.blocked_cycles::no_mshrs            0                       # number of cycles access was blocked
system.cpu.icache.blocked_cycles::no_targets            0                       # number of cycles access was blocked
system.cpu.icache.cache_copies                      0                       # number of cache copies performed
system.cpu.icache.demand_accesses            13536503                       # number of demand (read+write) accesses
system.cpu.icache.demand_avg_miss_latency 39718.236038                       # average overall miss latency
system.cpu.icache.demand_avg_mshr_miss_latency 35713.068732                       # average overall mshr miss latency
system.cpu.icache.demand_hits                13530970                       # number of demand (read+write) hits
system.cpu.icache.demand_miss_latency       219761000                       # number of demand (read+write) miss cycles
system.cpu.icache.demand_miss_rate           0.000409                       # miss rate for demand accesses
system.cpu.icache.demand_misses                  5533                       # number of demand (read+write) misses
system.cpu.icache.demand_mshr_hits                367                       # number of demand (read+write) MSHR hits
system.cpu.icache.demand_mshr_miss_latency    184458000                       # number of demand (read+write) MSHR miss cycles
system.cpu.icache.demand_mshr_miss_rate      0.000382                       # mshr miss rate for demand accesses
system.cpu.icache.demand_mshr_misses             5165                       # number of demand (read+write) MSHR misses
system.cpu.icache.fast_writes                       0                       # number of fast writes performed
system.cpu.icache.mshr_cap_events                   0                       # number of times MSHR cap was activated
system.cpu.icache.no_allocate_misses                0                       # Number of misses that were no-allocate
system.cpu.icache.occ_%::0                   0.366961                       # Average percentage of cache occupancy
system.cpu.icache.occ_blocks::0            187.883840                       # Average occupied blocks per context
system.cpu.icache.overall_accesses           13536503                       # number of overall (read+write) accesses
system.cpu.icache.overall_avg_miss_latency 39718.236038                       # average overall miss latency
system.cpu.icache.overall_avg_mshr_miss_latency 35713.068732                       # average overall mshr miss latency
system.cpu.icache.overall_avg_mshr_uncacheable_latency     no_value                       # average overall mshr uncacheable latency
system.cpu.icache.overall_hits               13530970                       # number of overall hits
system.cpu.icache.overall_miss_latency      219761000                       # number of overall miss cycles
system.cpu.icache.overall_miss_rate          0.000409                       # miss rate for overall accesses
system.cpu.icache.overall_misses                 5533                       # number of overall misses
system.cpu.icache.overall_mshr_hits               367                       # number of overall MSHR hits
system.cpu.icache.overall_mshr_miss_latency    184458000                       # number of overall MSHR miss cycles
system.cpu.icache.overall_mshr_miss_rate     0.000382                       # mshr miss rate for overall accesses
system.cpu.icache.overall_mshr_misses            5165                       # number of overall MSHR misses
system.cpu.icache.overall_mshr_uncacheable_latency            0                       # number of overall MSHR uncacheable cycles
system.cpu.icache.overall_mshr_uncacheable_misses            0                       # number of overall MSHR uncacheable misses
system.cpu.icache.prefetch_accuracy          no_value                       # ratio of good prefetches to total prefetches
system.cpu.icache.prefetch_hits                     0                       # number of prefetched blocks that were accessed
system.cpu.icache.replacements                   4957                       # number of replacements
system.cpu.icache.sampled_refs                   5166                       # Sample count of references to valid blocks.
system.cpu.icache.soft_prefetch_mshr_full            0                       # number of mshr full events for SW prefetching instrutions
system.cpu.icache.tagsinuse                187.883840                       # Cycle average of tags in use
system.cpu.icache.total_refs                 13530970                       # Total number of references to valid blocks.
system.cpu.icache.warmup_cycle                      0                       # Cycle when the warmup percentage was hit.
system.cpu.icache.writebacks                        0                       # number of writebacks
system.cpu.idle_fraction                            0                       # Percentage of idle cycles
system.cpu.itb.data_accesses                        0                       # DTB accesses
system.cpu.itb.data_acv                             0                       # DTB access violations
system.cpu.itb.data_hits                            0                       # DTB hits
system.cpu.itb.data_misses                          0                       # DTB misses
system.cpu.itb.fetch_accesses                       2                       # ITB accesses
system.cpu.itb.fetch_acv                            0                       # ITB acv
system.cpu.itb.fetch_hits                           2                       # ITB hits
system.cpu.itb.fetch_misses                         0                       # ITB misses
system.cpu.itb.read_accesses                        0                       # DTB read accesses
system.cpu.itb.read_acv                             0                       # DTB read access violations
system.cpu.itb.read_hits                            0                       # DTB read hits
system.cpu.itb.read_misses                          0                       # DTB read misses
system.cpu.itb.write_accesses                       0                       # DTB write accesses
system.cpu.itb.write_acv                            0                       # DTB write access violations
system.cpu.itb.write_hits                           0                       # DTB write hits
system.cpu.itb.write_misses                         0                       # DTB write misses
system.cpu.not_idle_fraction                        1                       # Percentage of non-idle cycles
system.cpu.numCycles                                2                       # number of cpu cycles simulated
system.cpu.num_insts                                2                       # Number of instructions executed
system.cpu.num_refs                                 0                       # Number of memory references
system.cpu.workload.PROG:num_syscalls               3                       # Number of system calls
system.l2.HardPFReq_avg_mshr_miss_latency 78285.539306                       # average HardPFReq mshr miss latency
system.l2.HardPFReq_mshr_miss_latency    252825576042                       # number of HardPFReq MSHR miss cycles
system.l2.HardPFReq_mshr_miss_rate                inf                       # mshr miss rate for HardPFReq accesses
system.l2.HardPFReq_mshr_misses               3229531                       # number of HardPFReq MSHR misses
system.l2.ReadExReq_accesses                     4038                       # number of ReadExReq accesses(hits+misses)
system.l2.ReadExReq_avg_miss_latency     75619.313751                       # average ReadExReq miss latency
system.l2.ReadExReq_avg_mshr_miss_latency 60212.200209                       # average ReadExReq mshr miss latency
system.l2.ReadExReq_hits                          191                       # number of ReadExReq hits
system.l2.ReadExReq_miss_latency            290907500                       # number of ReadExReq miss cycles
system.l2.ReadExReq_miss_rate                0.952699                       # miss rate for ReadExReq accesses
system.l2.ReadExReq_misses                       3847                       # number of ReadExReq misses
system.l2.ReadExReq_mshr_hits                      11                       # number of ReadExReq MSHR hits
system.l2.ReadExReq_mshr_miss_latency       230974000                       # number of ReadExReq MSHR miss cycles
system.l2.ReadExReq_mshr_miss_rate           0.949975                       # mshr miss rate for ReadExReq accesses
system.l2.ReadExReq_mshr_misses                  3836                       # number of ReadExReq MSHR misses
system.l2.ReadReq_accesses                    3526243                       # number of ReadReq accesses(hits+misses)
system.l2.ReadReq_avg_miss_latency       70430.307994                       # average ReadReq miss latency
system.l2.ReadReq_avg_mshr_miss_latency  85295.266112                       # average ReadReq mshr miss latency
system.l2.ReadReq_hits                        2442001                       # number of ReadReq hits
system.l2.ReadReq_miss_latency            76363498000                       # number of ReadReq miss cycles
system.l2.ReadReq_miss_rate                  0.307478                       # miss rate for ReadReq accesses
system.l2.ReadReq_misses                      1084242                       # number of ReadReq misses
system.l2.ReadReq_mshr_hits                    538474                       # number of ReadReq MSHR hits
system.l2.ReadReq_mshr_miss_latency       46551341500                       # number of ReadReq MSHR miss cycles
system.l2.ReadReq_mshr_miss_rate             0.154773                       # mshr miss rate for ReadReq accesses
system.l2.ReadReq_mshr_misses                  545767                       # number of ReadReq MSHR misses
system.l2.UpgradeReq_accesses                     923                       # number of UpgradeReq accesses(hits+misses)
system.l2.UpgradeReq_avg_miss_latency    79230.769231                       # average UpgradeReq miss latency
system.l2.UpgradeReq_avg_mshr_miss_latency 63841.820152                       # average UpgradeReq mshr miss latency
system.l2.UpgradeReq_miss_latency            73130000                       # number of UpgradeReq miss cycles
system.l2.UpgradeReq_miss_rate                      1                       # miss rate for UpgradeReq accesses
system.l2.UpgradeReq_misses                       923                       # number of UpgradeReq misses
system.l2.UpgradeReq_mshr_miss_latency       58926000                       # number of UpgradeReq MSHR miss cycles
system.l2.UpgradeReq_mshr_miss_rate                 1                       # mshr miss rate for UpgradeReq accesses
system.l2.UpgradeReq_mshr_misses                  923                       # number of UpgradeReq MSHR misses
system.l2.Writeback_accesses                     4506                       # number of Writeback accesses(hits+misses)
system.l2.Writeback_hits                         4506                       # number of Writeback hits
system.l2.avg_blocked_cycles::no_mshrs       no_value                       # average number of cycles each access was blocked
system.l2.avg_blocked_cycles::no_targets     no_value                       # average number of cycles each access was blocked
system.l2.avg_refs                           0.646707                       # Average number of references to valid blocks.
system.l2.blocked::no_mshrs                         0                       # number of cycles access was blocked
system.l2.blocked::no_targets                       0                       # number of cycles access was blocked
system.l2.blocked_cycles::no_mshrs                  0                       # number of cycles access was blocked
system.l2.blocked_cycles::no_targets                0                       # number of cycles access was blocked
system.l2.cache_copies                              0                       # number of cache copies performed
system.l2.demand_accesses                     3530281                       # number of demand (read+write) accesses
system.l2.demand_avg_miss_latency        70448.654016                       # average overall miss latency
system.l2.demand_avg_mshr_miss_latency   85120.196760                       # average overall mshr miss latency
system.l2.demand_hits                         2442192                       # number of demand (read+write) hits
system.l2.demand_miss_latency             76654405500                       # number of demand (read+write) miss cycles
system.l2.demand_miss_rate                   0.308216                       # miss rate for demand accesses
system.l2.demand_misses                       1088089                       # number of demand (read+write) misses
system.l2.demand_mshr_hits                     538485                       # number of demand (read+write) MSHR hits
system.l2.demand_mshr_miss_latency        46782315500                       # number of demand (read+write) MSHR miss cycles
system.l2.demand_mshr_miss_rate              0.155683                       # mshr miss rate for demand accesses
system.l2.demand_mshr_misses                   549603                       # number of demand (read+write) MSHR misses
system.l2.fast_writes                               0                       # number of fast writes performed
system.l2.mshr_cap_events                           0                       # number of times MSHR cap was activated
system.l2.no_allocate_misses                        0                       # Number of misses that were no-allocate
system.l2.occ_%::0                           0.267969                       # Average percentage of cache occupancy
system.l2.occ_%::1                           0.000492                       # Average percentage of cache occupancy
system.l2.occ_blocks::0                   4390.411428                       # Average occupied blocks per context
system.l2.occ_blocks::1                      8.063502                       # Average occupied blocks per context
system.l2.overall_accesses                    3530281                       # number of overall (read+write) accesses
system.l2.overall_avg_miss_latency       70448.654016                       # average overall miss latency
system.l2.overall_avg_mshr_miss_latency  79279.509946                       # average overall mshr miss latency
system.l2.overall_avg_mshr_uncacheable_latency     no_value                       # average overall mshr uncacheable latency
system.l2.overall_hits                        2442192                       # number of overall hits
system.l2.overall_miss_latency            76654405500                       # number of overall miss cycles
system.l2.overall_miss_rate                  0.308216                       # miss rate for overall accesses
system.l2.overall_misses                      1088089                       # number of overall misses
system.l2.overall_mshr_hits                    538485                       # number of overall MSHR hits
system.l2.overall_mshr_miss_latency      299607891542                       # number of overall MSHR miss cycles
system.l2.overall_mshr_miss_rate             1.070491                       # mshr miss rate for overall accesses
system.l2.overall_mshr_misses                 3779134                       # number of overall MSHR misses
system.l2.overall_mshr_uncacheable_latency            0                       # number of overall MSHR uncacheable cycles
system.l2.overall_mshr_uncacheable_misses            0                       # number of overall MSHR uncacheable misses
system.l2.prefetch_accuracy                  0.755382                       # ratio of good prefetches to total prefetches
system.l2.prefetch_hits                       2439531                       # number of prefetched blocks that were accessed
system.l2.prefetcher.num_hwpf_already_in_prefetcher     24633806                       # number of hwpf that were already in the prefetch queue
system.l2.prefetcher.num_hwpf_evicted               0                       # number of hwpf removed due to no buffer left
system.l2.prefetcher.num_hwpf_identified     29022257                       # number of hwpf identified
system.l2.prefetcher.num_hwpf_issued          4215736                       # number of hwpf issued
system.l2.prefetcher.num_hwpf_removed_MSHR_hit       172712                       # number of hwpf removed because MSHR allocated
system.l2.prefetcher.num_hwpf_span_page             0                       # number of hwpf spanning a virtual page
system.l2.prefetcher.num_hwpf_squashed_from_miss            0                       # number of hwpf that got squashed due to a miss aborting calculation time
system.l2.replacements                        3773673                       # number of replacements
system.l2.sampled_refs                        3778190                       # Sample count of references to valid blocks.
system.l2.soft_prefetch_mshr_full                   0                       # number of mshr full events for SW prefetching instrutions
system.l2.tagsinuse                       4398.474930                       # Cycle average of tags in use
system.l2.total_refs                          2443383                       # Total number of references to valid blocks.
system.l2.warmup_cycle                              0                       # Cycle when the warmup percentage was hit.
system.l2.writebacks                             4475                       # number of writebacks
system.switch_cpus.dtb.data_accesses          2832022                       # DTB accesses
system.switch_cpus.dtb.data_acv                     0                       # DTB access violations
system.switch_cpus.dtb.data_hits              2558233                       # DTB hits
system.switch_cpus.dtb.data_misses             273789                       # DTB misses
system.switch_cpus.dtb.fetch_accesses               0                       # ITB accesses
system.switch_cpus.dtb.fetch_acv                    0                       # ITB acv
system.switch_cpus.dtb.fetch_hits                   0                       # ITB hits
system.switch_cpus.dtb.fetch_misses                 0                       # ITB misses
system.switch_cpus.dtb.read_accesses          2682476                       # DTB read accesses
system.switch_cpus.dtb.read_acv                     0                       # DTB read access violations
system.switch_cpus.dtb.read_hits              2409028                       # DTB read hits
system.switch_cpus.dtb.read_misses             273448                       # DTB read misses
system.switch_cpus.dtb.write_accesses          149546                       # DTB write accesses
system.switch_cpus.dtb.write_acv                    0                       # DTB write access violations
system.switch_cpus.dtb.write_hits              149205                       # DTB write hits
system.switch_cpus.dtb.write_misses               341                       # DTB write misses
system.switch_cpus.idle_fraction                    1                       # Percentage of idle cycles
system.switch_cpus.itb.data_accesses                0                       # DTB accesses
system.switch_cpus.itb.data_acv                     0                       # DTB access violations
system.switch_cpus.itb.data_hits                    0                       # DTB hits
system.switch_cpus.itb.data_misses                  0                       # DTB misses
system.switch_cpus.itb.fetch_accesses        10273803                       # ITB accesses
system.switch_cpus.itb.fetch_acv                    0                       # ITB acv
system.switch_cpus.itb.fetch_hits            10273790                       # ITB hits
system.switch_cpus.itb.fetch_misses                13                       # ITB misses
system.switch_cpus.itb.read_accesses                0                       # DTB read accesses
system.switch_cpus.itb.read_acv                     0                       # DTB read access violations
system.switch_cpus.itb.read_hits                    0                       # DTB read hits
system.switch_cpus.itb.read_misses                  0                       # DTB read misses
system.switch_cpus.itb.write_accesses               0                       # DTB write accesses
system.switch_cpus.itb.write_acv                    0                       # DTB write access violations
system.switch_cpus.itb.write_hits                   0                       # DTB write hits
system.switch_cpus.itb.write_misses                 0                       # DTB write misses
system.switch_cpus.not_idle_fraction                0                       # Percentage of non-idle cycles
system.switch_cpus.numCycles                112175946                       # number of cpu cycles simulated
system.switch_cpus.num_insts                 10000001                       # Number of instructions executed
system.switch_cpus.num_refs                   2837031                       # Number of memory references
system.switch_cpus_1.BPredUnit.BTBCorrect            0                       # Number of correct BTB predictions (this stat may not work properly.
system.switch_cpus_1.BPredUnit.BTBHits        3706941                       # Number of BTB hits
system.switch_cpus_1.BPredUnit.BTBLookups      3882205                       # Number of BTB lookups
system.switch_cpus_1.BPredUnit.RASInCorrect           28                       # Number of incorrect RAS predictions.
system.switch_cpus_1.BPredUnit.condIncorrect        20366                       # Number of conditional branches incorrect
system.switch_cpus_1.BPredUnit.condPredicted      5242770                       # Number of conditional branches predicted
system.switch_cpus_1.BPredUnit.lookups        5388479                       # Number of BP lookups
system.switch_cpus_1.BPredUnit.usedRAS          53567                       # Number of times the RAS was used to get a target.
system.switch_cpus_1.commit.COM:branches      1639812                       # Number of branches committed
system.switch_cpus_1.commit.COM:bw_lim_events       129539                       # number cycles where commit BW limit reached
system.switch_cpus_1.commit.COM:bw_limited            0                       # number of insts not committed due to BW limits
system.switch_cpus_1.commit.COM:committed_per_cycle::samples     43063076                       # Number of insts commited each cycle
system.switch_cpus_1.commit.COM:committed_per_cycle::mean     0.239503                       # Number of insts commited each cycle
system.switch_cpus_1.commit.COM:committed_per_cycle::stdev     0.806829                       # Number of insts commited each cycle
system.switch_cpus_1.commit.COM:committed_per_cycle::underflows            0      0.00%      0.00% # Number of insts commited each cycle
system.switch_cpus_1.commit.COM:committed_per_cycle::0     37262812     86.53%     86.53% # Number of insts commited each cycle
system.switch_cpus_1.commit.COM:committed_per_cycle::1      3440494      7.99%     94.52% # Number of insts commited each cycle
system.switch_cpus_1.commit.COM:committed_per_cycle::2      1699112      3.95%     98.47% # Number of insts commited each cycle
system.switch_cpus_1.commit.COM:committed_per_cycle::3       139355      0.32%     98.79% # Number of insts commited each cycle
system.switch_cpus_1.commit.COM:committed_per_cycle::4        92282      0.21%     99.00% # Number of insts commited each cycle
system.switch_cpus_1.commit.COM:committed_per_cycle::5       176683      0.41%     99.41% # Number of insts commited each cycle
system.switch_cpus_1.commit.COM:committed_per_cycle::6        91483      0.21%     99.63% # Number of insts commited each cycle
system.switch_cpus_1.commit.COM:committed_per_cycle::7        31316      0.07%     99.70% # Number of insts commited each cycle
system.switch_cpus_1.commit.COM:committed_per_cycle::8       129539      0.30%    100.00% # Number of insts commited each cycle
system.switch_cpus_1.commit.COM:committed_per_cycle::overflows            0      0.00%    100.00% # Number of insts commited each cycle
system.switch_cpus_1.commit.COM:committed_per_cycle::min_value            0                       # Number of insts commited each cycle
system.switch_cpus_1.commit.COM:committed_per_cycle::max_value            8                       # Number of insts commited each cycle
system.switch_cpus_1.commit.COM:committed_per_cycle::total     43063076                       # Number of insts commited each cycle
system.switch_cpus_1.commit.COM:count        10313748                       # Number of instructions committed
system.switch_cpus_1.commit.COM:loads         2510912                       # Number of loads committed
system.switch_cpus_1.commit.COM:membars             0                       # Number of memory barriers committed
system.switch_cpus_1.commit.COM:refs          2655008                       # Number of memory references committed
system.switch_cpus_1.commit.COM:swp_count            0                       # Number of s/w prefetches committed
system.switch_cpus_1.commit.branchMispredicts        20027                       # The number of times a branch was mispredicted
system.switch_cpus_1.commit.commitCommittedInsts     10313748                       # The number of committed instructions
system.switch_cpus_1.commit.commitNonSpecStalls            1                       # The number of times commit has been forced to stall to communicate backwards
system.switch_cpus_1.commit.commitSquashedInsts     21926005                       # The number of squashed insts skipped by commit
system.switch_cpus_1.committedInsts          10000000                       # Number of Instructions Simulated
system.switch_cpus_1.committedInsts_total     10000000                       # Number of Instructions Simulated
system.switch_cpus_1.cpi                    10.905682                       # CPI: Cycles Per Instruction
system.switch_cpus_1.cpi_total              10.905682                       # CPI: Total CPI of All Threads
system.switch_cpus_1.decode.DECODE:BlockedCycles     28329915                       # Number of cycles decode is blocked
system.switch_cpus_1.decode.DECODE:BranchMispred          351                       # Number of times decode detected a branch misprediction
system.switch_cpus_1.decode.DECODE:BranchResolved        89829                       # Number of times decode resolved a branch
system.switch_cpus_1.decode.DECODE:DecodedInsts     34052746                       # Number of instructions handled by decode
system.switch_cpus_1.decode.DECODE:IdleCycles      7722952                       # Number of cycles decode is idle
system.switch_cpus_1.decode.DECODE:RunCycles      6420574                       # Number of cycles decode is running
system.switch_cpus_1.decode.DECODE:SquashCycles      2936549                       # Number of cycles decode is squashing
system.switch_cpus_1.decode.DECODE:SquashedInsts         1422                       # Number of squashed instructions handled by decode
system.switch_cpus_1.decode.DECODE:UnblockCycles       589634                       # Number of cycles decode is unblocking
system.switch_cpus_1.dtb.data_accesses        3997454                       # DTB accesses
system.switch_cpus_1.dtb.data_acv                   0                       # DTB access violations
system.switch_cpus_1.dtb.data_hits            3406238                       # DTB hits
system.switch_cpus_1.dtb.data_misses           591216                       # DTB misses
system.switch_cpus_1.dtb.fetch_accesses             0                       # ITB accesses
system.switch_cpus_1.dtb.fetch_acv                  0                       # ITB acv
system.switch_cpus_1.dtb.fetch_hits                 0                       # ITB hits
system.switch_cpus_1.dtb.fetch_misses               0                       # ITB misses
system.switch_cpus_1.dtb.read_accesses        3830107                       # DTB read accesses
system.switch_cpus_1.dtb.read_acv                   0                       # DTB read access violations
system.switch_cpus_1.dtb.read_hits            3239501                       # DTB read hits
system.switch_cpus_1.dtb.read_misses           590606                       # DTB read misses
system.switch_cpus_1.dtb.write_accesses        167347                       # DTB write accesses
system.switch_cpus_1.dtb.write_acv                  0                       # DTB write access violations
system.switch_cpus_1.dtb.write_hits            166737                       # DTB write hits
system.switch_cpus_1.dtb.write_misses             610                       # DTB write misses
system.switch_cpus_1.fetch.Branches           5388479                       # Number of branches that fetch encountered
system.switch_cpus_1.fetch.CacheLines         3262711                       # Number of cache lines fetched
system.switch_cpus_1.fetch.Cycles            10547369                       # Number of cycles fetch has run and was not squashing or blocked
system.switch_cpus_1.fetch.IcacheSquashes         4310                       # Number of outstanding Icache misses that were squashed
system.switch_cpus_1.fetch.Insts             35340552                       # Number of instructions fetch has processed
system.switch_cpus_1.fetch.SquashCycles        316686                       # Number of cycles fetch has spent squashing
system.switch_cpus_1.fetch.branchRate        0.049410                       # Number of branch fetches per cycle
system.switch_cpus_1.fetch.icacheStallCycles      3262711                       # Number of cycles fetch is stalled on an Icache miss
system.switch_cpus_1.fetch.predictedBranches      3760508                       # Number of branches that fetch has predicted taken
system.switch_cpus_1.fetch.rate              0.324056                       # Number of inst fetches per cycle
system.switch_cpus_1.fetch.rateDist::samples     45999625                       # Number of instructions fetched each cycle (Total)
system.switch_cpus_1.fetch.rateDist::mean     0.768279                       # Number of instructions fetched each cycle (Total)
system.switch_cpus_1.fetch.rateDist::stdev     2.000539                       # Number of instructions fetched each cycle (Total)
system.switch_cpus_1.fetch.rateDist::underflows            0      0.00%      0.00% # Number of instructions fetched each cycle (Total)
system.switch_cpus_1.fetch.rateDist::0       38715050     84.16%     84.16% # Number of instructions fetched each cycle (Total)
system.switch_cpus_1.fetch.rateDist::1         935848      2.03%     86.20% # Number of instructions fetched each cycle (Total)
system.switch_cpus_1.fetch.rateDist::2          74338      0.16%     86.36% # Number of instructions fetched each cycle (Total)
system.switch_cpus_1.fetch.rateDist::3          63567      0.14%     86.50% # Number of instructions fetched each cycle (Total)
system.switch_cpus_1.fetch.rateDist::4        3814772      8.29%     94.79% # Number of instructions fetched each cycle (Total)
system.switch_cpus_1.fetch.rateDist::5          54829      0.12%     94.91% # Number of instructions fetched each cycle (Total)
system.switch_cpus_1.fetch.rateDist::6          81804      0.18%     95.09% # Number of instructions fetched each cycle (Total)
system.switch_cpus_1.fetch.rateDist::7          34066      0.07%     95.16% # Number of instructions fetched each cycle (Total)
system.switch_cpus_1.fetch.rateDist::8        2225351      4.84%    100.00% # Number of instructions fetched each cycle (Total)
system.switch_cpus_1.fetch.rateDist::overflows            0      0.00%    100.00% # Number of instructions fetched each cycle (Total)
system.switch_cpus_1.fetch.rateDist::min_value            0                       # Number of instructions fetched each cycle (Total)
system.switch_cpus_1.fetch.rateDist::max_value            8                       # Number of instructions fetched each cycle (Total)
system.switch_cpus_1.fetch.rateDist::total     45999625                       # Number of instructions fetched each cycle (Total)
system.switch_cpus_1.idleCycles              63057198                       # Total number of cycles that the CPU has spent unscheduled due to idling
system.switch_cpus_1.iew.EXEC:branches        2328989                       # Number of branches executed
system.switch_cpus_1.iew.EXEC:nop              362240                       # number of nop insts executed
system.switch_cpus_1.iew.EXEC:rate           0.130897                       # Inst execution rate
system.switch_cpus_1.iew.EXEC:refs            4003862                       # number of memory reference insts executed
system.switch_cpus_1.iew.EXEC:stores           167347                       # Number of stores executed
system.switch_cpus_1.iew.EXEC:swp                   0                       # number of swp insts executed
system.switch_cpus_1.iew.WB:consumers        12036528                       # num instructions consuming a value
system.switch_cpus_1.iew.WB:count            13660462                       # cumulative count of insts written-back
system.switch_cpus_1.iew.WB:fanout           0.653539                       # average fanout of values written-back
system.switch_cpus_1.iew.WB:penalized               0                       # number of instrctions required to write to 'other' IQ
system.switch_cpus_1.iew.WB:penalized_rate            0                       # fraction of instructions written-back that wrote to 'other' IQ
system.switch_cpus_1.iew.WB:producers         7866340                       # num instructions producing a value
system.switch_cpus_1.iew.WB:rate             0.125260                       # insts written-back per cycle
system.switch_cpus_1.iew.WB:sent             14252793                       # cumulative count of insts sent to commit
system.switch_cpus_1.iew.branchMispredicts        22884                       # Number of branch mispredicts detected at execute
system.switch_cpus_1.iew.iewBlockCycles      18709344                       # Number of cycles IEW is blocking
system.switch_cpus_1.iew.iewDispLoadInsts      8757808                       # Number of dispatched load instructions
system.switch_cpus_1.iew.iewDispNonSpecInsts            1                       # Number of dispatched non-speculative instructions
system.switch_cpus_1.iew.iewDispSquashedInsts        18791                       # Number of squashed instructions skipped by dispatch
system.switch_cpus_1.iew.iewDispStoreInsts       183316                       # Number of dispatched store instructions
system.switch_cpus_1.iew.iewDispatchedInsts     32625682                       # Number of instructions dispatched to IQ
system.switch_cpus_1.iew.iewExecLoadInsts      3836515                       # Number of load instructions executed
system.switch_cpus_1.iew.iewExecSquashedInsts        19160                       # Number of squashed instructions skipped in execute
system.switch_cpus_1.iew.iewExecutedInsts     14275247                       # Number of executed instructions
system.switch_cpus_1.iew.iewIQFullEvents       605532                       # Number of times the IQ has become full, causing a stall
system.switch_cpus_1.iew.iewIdleCycles              0                       # Number of cycles IEW is idle
system.switch_cpus_1.iew.iewLSQFullEvents          800                       # Number of times the LSQ has become full, causing a stall
system.switch_cpus_1.iew.iewSquashCycles      2936549                       # Number of cycles IEW is squashing
system.switch_cpus_1.iew.iewUnblockCycles      1270763                       # Number of cycles IEW is unblocking
system.switch_cpus_1.iew.lsq.thread.0.blockedLoads            0                       # Number of blocked loads due to partial load-store forwarding
system.switch_cpus_1.iew.lsq.thread.0.cacheBlocked         6833                       # Number of times an access to memory failed due to the cache being blocked
system.switch_cpus_1.iew.lsq.thread.0.forwLoads        32921                       # Number of loads that had data forwarded from stores
system.switch_cpus_1.iew.lsq.thread.0.ignoredResponses          276                       # Number of memory responses ignored because the instruction is squashed
system.switch_cpus_1.iew.lsq.thread.0.invAddrLoads            0                       # Number of loads ignored due to an invalid address
system.switch_cpus_1.iew.lsq.thread.0.invAddrSwpfs            0                       # Number of software prefetches ignored due to an invalid address
system.switch_cpus_1.iew.lsq.thread.0.memOrderViolation          574                       # Number of memory ordering violations
system.switch_cpus_1.iew.lsq.thread.0.rescheduledLoads            0                       # Number of loads that were rescheduled
system.switch_cpus_1.iew.lsq.thread.0.squashedLoads      6246875                       # Number of loads squashed
system.switch_cpus_1.iew.lsq.thread.0.squashedStores        39220                       # Number of stores squashed
system.switch_cpus_1.iew.memOrderViolationEvents          574                       # Number of memory order violations
system.switch_cpus_1.iew.predictedNotTakenIncorrect         7609                       # Number of branches that were predicted not taken incorrectly
system.switch_cpus_1.iew.predictedTakenIncorrect        15275                       # Number of branches that were predicted taken incorrectly
system.switch_cpus_1.ipc                     0.091695                       # IPC: Instructions Per Cycle
system.switch_cpus_1.ipc_total               0.091695                       # IPC: Total IPC of All Threads
system.switch_cpus_1.iq.ISSUE:FU_type_0::No_OpClass            0      0.00%      0.00% # Type of FU issued
system.switch_cpus_1.iq.ISSUE:FU_type_0::IntAlu     10277442     71.90%     71.90% # Type of FU issued
system.switch_cpus_1.iq.ISSUE:FU_type_0::IntMult         1084      0.01%     71.91% # Type of FU issued
system.switch_cpus_1.iq.ISSUE:FU_type_0::IntDiv            0      0.00%     71.91% # Type of FU issued
system.switch_cpus_1.iq.ISSUE:FU_type_0::FloatAdd         4219      0.03%     71.94% # Type of FU issued
system.switch_cpus_1.iq.ISSUE:FU_type_0::FloatCmp            0      0.00%     71.94% # Type of FU issued
system.switch_cpus_1.iq.ISSUE:FU_type_0::FloatCvt         1100      0.01%     71.94% # Type of FU issued
system.switch_cpus_1.iq.ISSUE:FU_type_0::FloatMult          220      0.00%     71.94% # Type of FU issued
system.switch_cpus_1.iq.ISSUE:FU_type_0::FloatDiv            0      0.00%     71.94% # Type of FU issued
system.switch_cpus_1.iq.ISSUE:FU_type_0::FloatSqrt            0      0.00%     71.94% # Type of FU issued
system.switch_cpus_1.iq.ISSUE:FU_type_0::MemRead      3841136     26.87%     98.82% # Type of FU issued
system.switch_cpus_1.iq.ISSUE:FU_type_0::MemWrite       169206      1.18%    100.00% # Type of FU issued
system.switch_cpus_1.iq.ISSUE:FU_type_0::IprAccess            0      0.00%    100.00% # Type of FU issued
system.switch_cpus_1.iq.ISSUE:FU_type_0::InstPrefetch            0      0.00%    100.00% # Type of FU issued
system.switch_cpus_1.iq.ISSUE:FU_type_0::total     14294407                       # Type of FU issued
system.switch_cpus_1.iq.ISSUE:fu_busy_cnt         8883                       # FU busy when requested
system.switch_cpus_1.iq.ISSUE:fu_busy_rate     0.000621                       # FU busy rate (busy events/executed inst)
system.switch_cpus_1.iq.ISSUE:fu_full::No_OpClass            0      0.00%      0.00% # attempts to use FU when none available
system.switch_cpus_1.iq.ISSUE:fu_full::IntAlu           69      0.78%      0.78% # attempts to use FU when none available
system.switch_cpus_1.iq.ISSUE:fu_full::IntMult            0      0.00%      0.78% # attempts to use FU when none available
system.switch_cpus_1.iq.ISSUE:fu_full::IntDiv            0      0.00%      0.78% # attempts to use FU when none available
system.switch_cpus_1.iq.ISSUE:fu_full::FloatAdd            0      0.00%      0.78% # attempts to use FU when none available
system.switch_cpus_1.iq.ISSUE:fu_full::FloatCmp            0      0.00%      0.78% # attempts to use FU when none available
system.switch_cpus_1.iq.ISSUE:fu_full::FloatCvt            0      0.00%      0.78% # attempts to use FU when none available
system.switch_cpus_1.iq.ISSUE:fu_full::FloatMult            0      0.00%      0.78% # attempts to use FU when none available
system.switch_cpus_1.iq.ISSUE:fu_full::FloatDiv            0      0.00%      0.78% # attempts to use FU when none available
system.switch_cpus_1.iq.ISSUE:fu_full::FloatSqrt            0      0.00%      0.78% # attempts to use FU when none available
system.switch_cpus_1.iq.ISSUE:fu_full::MemRead         5022     56.53%     57.31% # attempts to use FU when none available
system.switch_cpus_1.iq.ISSUE:fu_full::MemWrite         3792     42.69%    100.00% # attempts to use FU when none available
system.switch_cpus_1.iq.ISSUE:fu_full::IprAccess            0      0.00%    100.00% # attempts to use FU when none available
system.switch_cpus_1.iq.ISSUE:fu_full::InstPrefetch            0      0.00%    100.00% # attempts to use FU when none available
system.switch_cpus_1.iq.ISSUE:issued_per_cycle::samples     45999625                       # Number of insts issued each cycle
system.switch_cpus_1.iq.ISSUE:issued_per_cycle::mean     0.310751                       # Number of insts issued each cycle
system.switch_cpus_1.iq.ISSUE:issued_per_cycle::stdev     0.710542                       # Number of insts issued each cycle
system.switch_cpus_1.iq.ISSUE:issued_per_cycle::underflows            0      0.00%      0.00% # Number of insts issued each cycle
system.switch_cpus_1.iq.ISSUE:issued_per_cycle::0     36054193     78.38%     78.38% # Number of insts issued each cycle
system.switch_cpus_1.iq.ISSUE:issued_per_cycle::1      7348276     15.97%     94.35% # Number of insts issued each cycle
system.switch_cpus_1.iq.ISSUE:issued_per_cycle::2      1283474      2.79%     97.14% # Number of insts issued each cycle
system.switch_cpus_1.iq.ISSUE:issued_per_cycle::3       997205      2.17%     99.31% # Number of insts issued each cycle
system.switch_cpus_1.iq.ISSUE:issued_per_cycle::4       214732      0.47%     99.78% # Number of insts issued each cycle
system.switch_cpus_1.iq.ISSUE:issued_per_cycle::5        86807      0.19%     99.97% # Number of insts issued each cycle
system.switch_cpus_1.iq.ISSUE:issued_per_cycle::6        10189      0.02%     99.99% # Number of insts issued each cycle
system.switch_cpus_1.iq.ISSUE:issued_per_cycle::7         4521      0.01%    100.00% # Number of insts issued each cycle
system.switch_cpus_1.iq.ISSUE:issued_per_cycle::8          228      0.00%    100.00% # Number of insts issued each cycle
system.switch_cpus_1.iq.ISSUE:issued_per_cycle::overflows            0      0.00%    100.00% # Number of insts issued each cycle
system.switch_cpus_1.iq.ISSUE:issued_per_cycle::min_value            0                       # Number of insts issued each cycle
system.switch_cpus_1.iq.ISSUE:issued_per_cycle::max_value            8                       # Number of insts issued each cycle
system.switch_cpus_1.iq.ISSUE:issued_per_cycle::total     45999625                       # Number of insts issued each cycle
system.switch_cpus_1.iq.ISSUE:rate           0.131073                       # Inst issue rate
system.switch_cpus_1.iq.iqInstsAdded         32263441                       # Number of instructions added to the IQ (excludes non-spec)
system.switch_cpus_1.iq.iqInstsIssued        14294407                       # Number of instructions issued
system.switch_cpus_1.iq.iqNonSpecInstsAdded            1                       # Number of non-speculative instructions added to the IQ
system.switch_cpus_1.iq.iqSquashedInstsExamined     22244701                       # Number of squashed instructions iterated over during squash; mainly for profiling
system.switch_cpus_1.iq.iqSquashedInstsIssued          482                       # Number of squashed instructions issued
system.switch_cpus_1.iq.iqSquashedOperandsExamined     31597569                       # Number of squashed operands that are examined and possibly removed from graph
system.switch_cpus_1.itb.data_accesses              0                       # DTB accesses
system.switch_cpus_1.itb.data_acv                   0                       # DTB access violations
system.switch_cpus_1.itb.data_hits                  0                       # DTB hits
system.switch_cpus_1.itb.data_misses                0                       # DTB misses
system.switch_cpus_1.itb.fetch_accesses       3262794                       # ITB accesses
system.switch_cpus_1.itb.fetch_acv                  0                       # ITB acv
system.switch_cpus_1.itb.fetch_hits           3262711                       # ITB hits
system.switch_cpus_1.itb.fetch_misses              83                       # ITB misses
system.switch_cpus_1.itb.read_accesses              0                       # DTB read accesses
system.switch_cpus_1.itb.read_acv                   0                       # DTB read access violations
system.switch_cpus_1.itb.read_hits                  0                       # DTB read hits
system.switch_cpus_1.itb.read_misses                0                       # DTB read misses
system.switch_cpus_1.itb.write_accesses             0                       # DTB write accesses
system.switch_cpus_1.itb.write_acv                  0                       # DTB write access violations
system.switch_cpus_1.itb.write_hits                 0                       # DTB write hits
system.switch_cpus_1.itb.write_misses               0                       # DTB write misses
system.switch_cpus_1.memDep0.conflictingLoads        66330                       # Number of conflicting loads.
system.switch_cpus_1.memDep0.conflictingStores         2619                       # Number of conflicting stores.
system.switch_cpus_1.memDep0.insertedLoads      8757808                       # Number of loads inserted to the mem dependence unit.
system.switch_cpus_1.memDep0.insertedStores       183316                       # Number of stores inserted to the mem dependence unit.
system.switch_cpus_1.numCycles              109056823                       # number of cpu cycles simulated
system.switch_cpus_1.rename.RENAME:BlockCycles     24488894                       # Number of cycles rename is blocking
system.switch_cpus_1.rename.RENAME:CommittedMaps      8255878                       # Number of HB maps that are committed
system.switch_cpus_1.rename.RENAME:IQFullEvents      3967555                       # Number of times rename has blocked due to IQ full
system.switch_cpus_1.rename.RENAME:IdleCycles      8371256                       # Number of cycles rename is idle
system.switch_cpus_1.rename.RENAME:LSQFullEvents        27685                       # Number of times rename has blocked due to LSQ full
system.switch_cpus_1.rename.RENAME:ROBFullEvents          931                       # Number of times rename has blocked due to ROB full
system.switch_cpus_1.rename.RENAME:RenameLookups     53173469                       # Number of register rename lookups that rename has made
system.switch_cpus_1.rename.RENAME:RenamedInsts     33016424                       # Number of instructions processed by rename
system.switch_cpus_1.rename.RENAME:RenamedOperands     27468203                       # Number of destination operands rename has renamed
system.switch_cpus_1.rename.RENAME:RunCycles      6408527                       # Number of cycles rename is running
system.switch_cpus_1.rename.RENAME:SquashCycles      2936549                       # Number of cycles rename is squashing
system.switch_cpus_1.rename.RENAME:UnblockCycles      3794387                       # Number of cycles rename is unblocking
system.switch_cpus_1.rename.RENAME:UndoneMaps     19212259                       # Number of HB maps that are undone due to squashing
system.switch_cpus_1.rename.RENAME:serializeStallCycles           11                       # count of cycles rename stalled for serializing inst
system.switch_cpus_1.rename.RENAME:serializingInsts            1                       # count of serializing insts renamed
system.switch_cpus_1.rename.RENAME:skidInsts      7448160                       # count of insts added to the skid buffer
system.switch_cpus_1.rename.RENAME:tempSerializingInsts            1                       # count of temporary serializing insts renamed
system.switch_cpus_1.timesIdled               1163614                       # Number of times that the entire CPU went into an idle state and unscheduled itself

---------- End Simulation Statistics   ----------
